data_sad

_space_group_crystal_system       'monoclinic'
_space_group_IT_number            9
_space_group_name_H-M_alt         'I 1 c 1'
_space_group_name_Hall            'I -2yc'
loop_
_space_group_symop_operation_xyz
'x, y, z'
'x, -y, z+1/2'
'x+1/2, y+1/2, z+1/2'
'x+1/2, -y+1/2, z+1'

_cell_length_a                    5.7257(4)
_cell_length_b                    12.1378(7)
_cell_length_c                    14.4461(9)
_cell_angle_alpha                 90
_cell_angle_beta                  90
_cell_angle_gamma                 90
_cell_volume                      1003.97(11)
_cell_formula_units_Z             4

loop_
  _atom_site_label
  _atom_site_type_symbol
  _atom_site_fract_x
  _atom_site_fract_y
  _atom_site_fract_z
  _atom_site_U_iso_or_equiv
  _atom_site_adp_type
  _atom_site_occupancy
  _atom_site_refinement_flags_posn
  _atom_site_site_symmetry_order
  _atom_site_disorder_group
 O1 O 0.127285 0.830196 0.412582 0.01843 Uani 1 . 1 .
 C1 C -0.000136 0.766805 0.345036 0.015483 Uani 1 . 1 .
 H1a H -0.094147 0.815315 0.304456 0.01858 Uiso 1 . 1 .
 H1b H -0.104956 0.712983 0.375457 0.01858 Uiso 1 . 1 .
 O2 O 0.405739 0.751023 0.328418 0.014683 Uani 1 . 1 .
 C2 C 0.192448 0.707938 0.289747 0.011743 Uani 1 . 1 .
 H2 H 0.191388 0.727264 0.223766 0.014092 Uiso 1 . 1 .
 O3 O 0.504028 0.868313 0.441343 0.025253 Uani 1 . 1 .
 C3 C 0.188543 0.583804 0.301395 0.01097 Uani 1 . 1 .
 H3 H 0.037772 0.555825 0.284786 0.013164 Uiso 1 . 1 .
 O4 O 0.502511 0.506543 0.381519 0.01356 Uani 1 . 1 .
 C4 C 0.266274 0.543845 0.397444 0.010943 Uani 1 . 1 .
 H4 H 0.269381 0.602265 0.440547 0.013132 Uiso 1 . 1 .
 O5 O 0.359259 0.534625 0.240391 0.013053 Uani 1 . 1 .
 C5 C 0.123677 0.449004 0.435598 0.012497 Uani 1 . 1 .
 H5 H -0.035239 0.471488 0.442038 0.014996 Uiso 1 . 1 .
 C6 C 0.225396 0.399184 0.524353 0.016537 Uani 1 . 1 .
 H6a H 0.368247 0.438919 0.543747 0.019844 Uiso 1 . 1 .
 H6b H 0.110165 0.401561 0.575407 0.019844 Uiso 1 . 1 .
 O6 O 0.712454 0.456334 0.257437 0.016993 Uani 1 . 1 .
 O7 O 0.129919 0.359061 0.370378 0.015953 Uani 1 . 1 .
 C7 C 0.217243 0.268086 0.410794 0.01607 Uani 1 . 1 .
 C8 C 0.539127 0.495789 0.289799 0.01228 Uani 1 . 1 .
 O8 O 0.278553 0.286624 0.498661 0.020297 Uani 1 . 1 .
 O9 O 0.23553 0.181644 0.371378 0.02483 Uani 1 . 1 .
 C9 C 0.356789 0.821604 0.397524 0.016377 Uani 1 . 1 .

loop_
  _atom_site_aniso_label
  _atom_site_aniso_U_11
  _atom_site_aniso_U_22
  _atom_site_aniso_U_33
  _atom_site_aniso_U_23
  _atom_site_aniso_U_13
  _atom_site_aniso_U_12
 O1 0.02292 0.01789 0.01448 -0.00341 0.00103 -0.00115
 C1 0.01411 0.01537 0.01697 -0.00147 -0.00114 0.0026
 O2 0.01258 0.01196 0.01951 -0.00114 -0.00323 -0.00145
 C2 0.01126 0.01143 0.01254 0.00068 -0.0021 -0.00033
 O3 0.0319 0.02009 0.02377 -0.00135 -0.01309 -0.00629
 C3 0.01127 0.01139 0.01025 -0.00047 -0.00027 -0.00019
 O4 0.01116 0.01788 0.01164 -0.00104 -0.00098 0.00149
 C4 0.01177 0.01069 0.01037 -0.00013 0.00009 0.00038
 O5 0.01453 0.01428 0.01035 -0.00178 0.00015 0.00116
 C5 0.01546 0.01094 0.01109 -0.00023 0.00056 -0.00117
 C6 0.02309 0.01472 0.0118 0.00142 -0.00102 -0.00199
 O6 0.01332 0.01607 0.02159 -0.00524 0.00325 0.00012
 O7 0.02491 0.01071 0.01224 -0.00093 -0.0025 -0.0015
 C7 0.01513 0.01401 0.01907 -0.00044 -0.00098 0.00039
 C8 0.01253 0.01063 0.01368 -0.00192 0.0002 -0.00188
 O8 0.02525 0.01542 0.02022 0.00135 -0.00832 0.00257
 O9 0.02619 0.01568 0.03262 -0.00658 -0.00169 0.00355
 C9 0.02235 0.01252 0.01426 0.00171 -0.00522 -0.0018

